reliability/test/IEEE_13_fault_test.glm
// $Id$
//	Copyright (C) 2009 Battelle Memorial Institute

#set iteration_limit=100000;

module powerflow{
	solver_method NR;
}
module assert;
module tape;
module reliability{
	maximum_event_length 1800;
	report_event_log TRUE;
}

clock {
	timezone PST+8PDT;
	starttime '2001-01-01 00:00:00';
	stoptime '2001-01-13 00:00:22';
}

//setup reliability
object fault_check {				//Fault check object - required to make powerflow properly handle faults
	name test_fault;
	check_mode ONCHANGE;			//Fault check mode - should be in ONCHANGE - reliability will change it
	eventgen_object Node_650_SLG_A;		//Link to eventgen object - used to handle "unscheduled" events - fuses and switch openings
	output_filename testout.txt;	//"unsupported node" dump file
};

object metrics {
	name testmetrics;
	report_file testmetrics.txt;						//Name of the output file
	module_metrics_object pwrmetrics;					//Module-specific "metrics" object - a powerflow metrics object is specified here
	metrics_of_interest "SAIFI,SAIDI,CAIDI,ASAI,MAIFI";	//Metrics to output into the report file
	customer_group "groupid=METERTEST";					//Search criteria for determining "customers" of the system - similar to collectors - this group is both three-phase and triplex meters
	//customer_group "class=meter";						//"Customers" are only 3-phase meters on the system
	//customer_group "class=triplex_meter";				//"Customers" are only triplex meters on the system
	metric_interval 5 h; 								//Interval to run metrics - (separate from "simulation-long" metrics) - set to 0 for no metric updates (defaults to no interval updates)
	report_interval 5 h;								//Interval to dump metric updates to the output file.
}


//faults for bus 650
object eventgen {				//Event generation object - induces actual faults on the system - this one is a manual object
	name Node_650_SLG_A;
	parent testmetrics;			//Parent it to the reliability metrics object
	fault_type "SLG-A";			//Type of fault for the object to induce
	manual_outages "line_source-650,2001-01-13 0:00:01,2001-01-13 00:00:02";
}

object eventgen {				//Event generation object - induces actual faults on the system - this one is a manual object
	name Node_650_SLG_B;
	parent testmetrics;			//Parent it to the reliability metrics object
	fault_type "SLG-B";			//Type of fault for the object to induce
	manual_outages "line_source-650,2001-01-13 0:00:03,2001-01-13 00:00:04";
}

object eventgen {				//Event generation object - induces actual faults on the system - this one is a manual object
	name Node_650_SLG_C;
	parent testmetrics;			//Parent it to the reliability metrics object
	fault_type "SLG-C";			//Type of fault for the object to induce
	manual_outages "line_source-650,2001-01-13 0:00:05,2001-01-13 00:00:06";
}

object eventgen {				//Event generation object - induces actual faults on the system - this one is a manual object
	name Node_650_DLG_AB;
	parent testmetrics;			//Parent it to the reliability metrics object
	fault_type "DLG-AB";			//Type of fault for the object to induce
	manual_outages "line_source-650,2001-01-13 0:00:07,2001-01-13 00:00:08";
}

object eventgen {				//Event generation object - induces actual faults on the system - this one is a manual object
	name Node_650_DLG_BC;
	parent testmetrics;			//Parent it to the reliability metrics object
	fault_type "DLG-BC";			//Type of fault for the object to induce
	manual_outages "line_source-650,2001-01-13 0:00:09,2001-01-13 00:00:10";
}

object eventgen {				//Event generation object - induces actual faults on the system - this one is a manual object
	name Node_650_DLG_CA;
	parent testmetrics;			//Parent it to the reliability metrics object
	fault_type "DLG-CA";			//Type of fault for the object to induce
	manual_outages "line_source-650,2001-01-13 0:00:11,2001-01-13 00:00:12";
}

object eventgen {				//Event generation object - induces actual faults on the system - this one is a manual object
	name Node_650_LL_AB;
	parent testmetrics;			//Parent it to the reliability metrics object
	fault_type "LL-AB";			//Type of fault for the object to induce
	manual_outages "line_source-650,2001-01-13 0:00:13,2001-01-13 00:00:14";
}

object eventgen {				//Event generation object - induces actual faults on the system - this one is a manual object
	name Node_650_LL_BC;
	parent testmetrics;			//Parent it to the reliability metrics object
	fault_type "LL-BC";			//Type of fault for the object to induce
	manual_outages "line_source-650,2001-01-13 0:00:15,2001-01-13 00:00:16";
}

object eventgen {				//Event generation object - induces actual faults on the system - this one is a manual object
	name Node_650_LL_CA;
	parent testmetrics;			//Parent it to the reliability metrics object
	fault_type "LL-CA";			//Type of fault for the object to induce
	manual_outages "line_source-650,2001-01-13 0:00:17,2001-01-13 00:00:18";
}

object eventgen {				//Event generation object - induces actual faults on the system - this one is a manual object
	name Node_650_TLG;
	parent testmetrics;			//Parent it to the reliability metrics object
	fault_type "TLG";			//Type of fault for the object to induce
	manual_outages "line_source-650,2001-01-13 0:00:19,2001-01-13 00:00:20";
}

object eventgen {				//Event generation object - induces actual faults on the system - this one is a manual object
	name Node_650_TLL;
	parent testmetrics;			//Parent it to the reliability metrics object
	fault_type "TLL";			//Type of fault for the object to induce
	manual_outages "line_source-650,2001-01-13 0:00:21,2001-01-13 00:00:22";
}

//faults for bus 632
object eventgen {				//Event generation object - induces actual faults on the system - this one is a manual object
	name Node_632_SLG_A;
	parent testmetrics;			//Parent it to the reliability metrics object
	fault_type "SLG-A";			//Type of fault for the object to induce
	manual_outages "line_630-632,2001-01-01 0:00:01,2001-01-01 00:00:02";
}

object eventgen {				//Event generation object - induces actual faults on the system - this one is a manual object
	name Node_632_SLG_B;
	parent testmetrics;			//Parent it to the reliability metrics object
	fault_type "SLG-B";			//Type of fault for the object to induce
	manual_outages "line_630-632,2001-01-01 0:00:03,2001-01-01 00:00:04";
}

object eventgen {				//Event generation object - induces actual faults on the system - this one is a manual object
	name Node_632_SLG_C;
	parent testmetrics;			//Parent it to the reliability metrics object
	fault_type "SLG-C";			//Type of fault for the object to induce
	manual_outages "line_630-632,2001-01-01 0:00:05,2001-01-01 00:00:06";
}

object eventgen {				//Event generation object - induces actual faults on the system - this one is a manual object
	name Node_632_DLG_AB;
	parent testmetrics;			//Parent it to the reliability metrics object
	fault_type "DLG-AB";			//Type of fault for the object to induce
	manual_outages "line_630-632,2001-01-01 0:00:07,2001-01-01 00:00:08";
}

object eventgen {				//Event generation object - induces actual faults on the system - this one is a manual object
	name Node_632_DLG_BC;
	parent testmetrics;			//Parent it to the reliability metrics object
	fault_type "DLG-BC";			//Type of fault for the object to induce
	manual_outages "line_630-632,2001-01-01 0:00:09,2001-01-01 00:00:10";
}

object eventgen {				//Event generation object - induces actual faults on the system - this one is a manual object
	name Node_632_DLG_CA;
	parent testmetrics;			//Parent it to the reliability metrics object
	fault_type "DLG-CA";			//Type of fault for the object to induce
	manual_outages "line_630-632,2001-01-01 0:00:11,2001-01-01 00:00:12";
}

object eventgen {				//Event generation object - induces actual faults on the system - this one is a manual object
	name Node_632_LL_AB;
	parent testmetrics;			//Parent it to the reliability metrics object
	fault_type "LL-AB";			//Type of fault for the object to induce
	manual_outages "line_630-632,2001-01-01 0:00:13,2001-01-01 00:00:14";
}

object eventgen {				//Event generation object - induces actual faults on the system - this one is a manual object
	name Node_632_LL_BC;
	parent testmetrics;			//Parent it to the reliability metrics object
	fault_type "LL-BC";			//Type of fault for the object to induce
	manual_outages "line_630-632,2001-01-01 0:00:15,2001-01-01 00:00:16";
}

object eventgen {				//Event generation object - induces actual faults on the system - this one is a manual object
	name Node_632_LL_CA;
	parent testmetrics;			//Parent it to the reliability metrics object
	fault_type "LL-CA";			//Type of fault for the object to induce
	manual_outages "line_630-632,2001-01-01 0:00:17,2001-01-01 00:00:18";
}

object eventgen {				//Event generation object - induces actual faults on the system - this one is a manual object
	name Node_632_TLG;
	parent testmetrics;			//Parent it to the reliability metrics object
	fault_type "TLG";			//Type of fault for the object to induce
	manual_outages "line_630-632,2001-01-01 0:00:19,2001-01-01 00:00:20";
}

object eventgen {				//Event generation object - induces actual faults on the system - this one is a manual object
	name Node_632_TLL;
	parent testmetrics;			//Parent it to the reliability metrics object
	fault_type "TLL";			//Type of fault for the object to induce
	manual_outages "line_630-632,2001-01-01 0:00:21,2001-01-01 00:00:22";
}

//faults for bus 633
object eventgen {				//Event generation object - induces actual faults on the system - this one is a manual object
	name Node_633_SLG_A;
	parent testmetrics;			//Parent it to the reliability metrics object
	fault_type "SLG-A";			//Type of fault for the object to induce
	manual_outages "line_632-633,2001-01-02 0:00:01,2001-01-02 00:00:02";
}

object eventgen {				//Event generation object - induces actual faults on the system - this one is a manual object
	name Node_633_SLG_B;
	parent testmetrics;			//Parent it to the reliability metrics object
	fault_type "SLG-B";			//Type of fault for the object to induce
	manual_outages "line_632-633,2001-01-02 0:00:03,2001-01-02 00:00:04";
}

object eventgen {				//Event generation object - induces actual faults on the system - this one is a manual object
	name Node_633_SLG_C;
	parent testmetrics;			//Parent it to the reliability metrics object
	fault_type "SLG-C";			//Type of fault for the object to induce
	manual_outages "line_632-633,2001-01-02 0:00:05,2001-01-02 00:00:06";
}

object eventgen {				//Event generation object - induces actual faults on the system - this one is a manual object
	name Node_633_DLG_AB;
	parent testmetrics;			//Parent it to the reliability metrics object
	fault_type "DLG-AB";			//Type of fault for the object to induce
	manual_outages "line_632-633,2001-01-02 0:00:07,2001-01-02 00:00:08";
}

object eventgen {				//Event generation object - induces actual faults on the system - this one is a manual object
	name Node_633_DLG_BC;
	parent testmetrics;			//Parent it to the reliability metrics object
	fault_type "DLG-BC";			//Type of fault for the object to induce
	manual_outages "line_632-633,2001-01-02 0:00:09,2001-01-02 00:00:10";
}

object eventgen {				//Event generation object - induces actual faults on the system - this one is a manual object
	name Node_633_DLG_CA;
	parent testmetrics;			//Parent it to the reliability metrics object
	fault_type "DLG-CA";			//Type of fault for the object to induce
	manual_outages "line_632-633,2001-01-02 0:00:11,2001-01-02 00:00:12";
}

object eventgen {				//Event generation object - induces actual faults on the system - this one is a manual object
	name Node_633_LL_AB;
	parent testmetrics;			//Parent it to the reliability metrics object
	fault_type "LL-AB";			//Type of fault for the object to induce
	manual_outages "line_632-633,2001-01-02 0:00:13,2001-01-02 00:00:14";
}

object eventgen {				//Event generation object - induces actual faults on the system - this one is a manual object
	name Node_633_LL_BC;
	parent testmetrics;			//Parent it to the reliability metrics object
	fault_type "LL-BC";			//Type of fault for the object to induce
	manual_outages "line_632-633,2001-01-02 0:00:15,2001-01-02 00:00:16";
}

object eventgen {				//Event generation object - induces actual faults on the system - this one is a manual object
	name Node_633_LL_CA;
	parent testmetrics;			//Parent it to the reliability metrics object
	fault_type "LL-CA";			//Type of fault for the object to induce
	manual_outages "line_632-633,2001-01-02 0:00:17,2001-01-02 00:00:18";
}

object eventgen {				//Event generation object - induces actual faults on the system - this one is a manual object
	name Node_633_TLG;
	parent testmetrics;			//Parent it to the reliability metrics object
	fault_type "TLG";			//Type of fault for the object to induce
	manual_outages "line_632-633,2001-01-02 0:00:19,2001-01-02 00:00:20";
}

object eventgen {				//Event generation object - induces actual faults on the system - this one is a manual object
	name Node_633_TLL;
	parent testmetrics;			//Parent it to the reliability metrics object
	fault_type "TLL";			//Type of fault for the object to induce
	manual_outages "line_632-633,2001-01-02 0:00:21,2001-01-02 00:00:22";
}

//faults for bus 634
object eventgen {				//Event generation object - induces actual faults on the system - this one is a manual object
	name Node_634_SLG_A;
	parent testmetrics;			//Parent it to the reliability metrics object
	fault_type "SLG-A";			//Type of fault for the object to induce
	manual_outages "switch_634-634,2001-01-03 0:00:01,2001-01-03 00:00:02";
}

object eventgen {				//Event generation object - induces actual faults on the system - this one is a manual object
	name Node_634_SLG_B;
	parent testmetrics;			//Parent it to the reliability metrics object
	fault_type "SLG-B";			//Type of fault for the object to induce
	manual_outages "switch_634-634,2001-01-03 0:00:03,2001-01-03 00:00:04";
}

object eventgen {				//Event generation object - induces actual faults on the system - this one is a manual object
	name Node_634_SLG_C;
	parent testmetrics;			//Parent it to the reliability metrics object
	fault_type "SLG-C";			//Type of fault for the object to induce
	manual_outages "switch_634-634,2001-01-03 0:00:05,2001-01-03 00:00:06";
}

object eventgen {				//Event generation object - induces actual faults on the system - this one is a manual object
	name Node_634_DLG_AB;
	parent testmetrics;			//Parent it to the reliability metrics object
	fault_type "DLG-AB";			//Type of fault for the object to induce
	manual_outages "switch_634-634,2001-01-03 0:00:07,2001-01-03 00:00:08";
}

object eventgen {				//Event generation object - induces actual faults on the system - this one is a manual object
	name Node_634_DLG_BC;
	parent testmetrics;			//Parent it to the reliability metrics object
	fault_type "DLG-BC";			//Type of fault for the object to induce
	manual_outages "switch_634-634,2001-01-03 0:00:09,2001-01-03 00:00:10";
}

object eventgen {				//Event generation object - induces actual faults on the system - this one is a manual object
	name Node_634_DLG_CA;
	parent testmetrics;			//Parent it to the reliability metrics object
	fault_type "DLG-CA";			//Type of fault for the object to induce
	manual_outages "switch_634-634,2001-01-03 0:00:11,2001-01-03 00:00:12";
}

object eventgen {				//Event generation object - induces actual faults on the system - this one is a manual object
	name Node_634_LL_AB;
	parent testmetrics;			//Parent it to the reliability metrics object
	fault_type "LL-AB";			//Type of fault for the object to induce
	manual_outages "switch_634-634,2001-01-03 0:00:13,2001-01-03 00:00:14";
}

object eventgen {				//Event generation object - induces actual faults on the system - this one is a manual object
	name Node_634_LL_BC;
	parent testmetrics;			//Parent it to the reliability metrics object
	fault_type "LL-BC";			//Type of fault for the object to induce
	manual_outages "switch_634-634,2001-01-03 0:00:15,2001-01-03 00:00:16";
}

object eventgen {				//Event generation object - induces actual faults on the system - this one is a manual object
	name Node_634_LL_CA;
	parent testmetrics;			//Parent it to the reliability metrics object
	fault_type "LL-CA";			//Type of fault for the object to induce
	manual_outages "switch_634-634,2001-01-03 0:00:17,2001-01-03 00:00:18";
}

object eventgen {				//Event generation object - induces actual faults on the system - this one is a manual object
	name Node_634_TLG;
	parent testmetrics;			//Parent it to the reliability metrics object
	fault_type "TLG";			//Type of fault for the object to induce
	manual_outages "switch_634-634,2001-01-03 0:00:19,2001-01-03 00:00:20";
}

object eventgen {				//Event generation object - induces actual faults on the system - this one is a manual object
	name Node_634_TLL;
	parent testmetrics;			//Parent it to the reliability metrics object
	fault_type "TLL";			//Type of fault for the object to induce
	manual_outages "switch_634-634,2001-01-03 0:00:21,2001-01-03 00:00:22";
}

//faults for bus 645
object eventgen {				//Event generation object - induces actual faults on the system - this one is a manual object
	name Node_645_SLG_B;
	parent testmetrics;			//Parent it to the reliability metrics object
	fault_type "SLG-B";			//Type of fault for the object to induce
	manual_outages "line_632-645,2001-01-04 0:00:03,2001-01-04 00:00:04";
}

object eventgen {				//Event generation object - induces actual faults on the system - this one is a manual object
	name Node_645_SLG_C;
	parent testmetrics;			//Parent it to the reliability metrics object
	fault_type "SLG-C";			//Type of fault for the object to induce
	manual_outages "line_632-645,2001-01-04 0:00:05,2001-01-04 00:00:06";
}

object eventgen {				//Event generation object - induces actual faults on the system - this one is a manual object
	name Node_645_DLG_BC;
	parent testmetrics;			//Parent it to the reliability metrics object
	fault_type "DLG-BC";			//Type of fault for the object to induce
	manual_outages "line_632-645,2001-01-04 0:00:09,2001-01-04 00:00:10";
}

object eventgen {				//Event generation object - induces actual faults on the system - this one is a manual object
	name Node_645_LL_BC;
	parent testmetrics;			//Parent it to the reliability metrics object
	fault_type "LL-BC";			//Type of fault for the object to induce
	manual_outages "line_632-645,2001-01-04 0:00:15,2001-01-04 00:00:16";
}

//faults for bus 646
object eventgen {				//Event generation object - induces actual faults on the system - this one is a manual object
	name Node_646_SLG_B;
	parent testmetrics;			//Parent it to the reliability metrics object
	fault_type "SLG-B";			//Type of fault for the object to induce
	manual_outages "line_645-646,2001-01-05 0:00:03,2001-01-05 00:00:04";
}

object eventgen {				//Event generation object - induces actual faults on the system - this one is a manual object
	name Node_646_SLG_C;
	parent testmetrics;			//Parent it to the reliability metrics object
	fault_type "SLG-C";			//Type of fault for the object to induce
	manual_outages "line_645-646,2001-01-05 0:00:05,2001-01-05 00:00:06";
}

object eventgen {				//Event generation object - induces actual faults on the system - this one is a manual object
	name Node_646_DLG_BC;
	parent testmetrics;			//Parent it to the reliability metrics object
	fault_type "DLG-BC";			//Type of fault for the object to induce
	manual_outages "line_645-646,2001-01-05 0:00:09,2001-01-05 00:00:10";
}

object eventgen {				//Event generation object - induces actual faults on the system - this one is a manual object
	name Node_646_LL_BC;
	parent testmetrics;			//Parent it to the reliability metrics object
	fault_type "LL-BC";			//Type of fault for the object to induce
	manual_outages "line_645-646,2001-01-05 0:00:15,2001-01-05 00:00:16";
}

//faults for bus 671
object eventgen {				//Event generation object - induces actual faults on the system - this one is a manual object
	name Node_671_SLG_A;
	parent testmetrics;			//Parent it to the reliability metrics object
	fault_type "SLG-A";			//Type of fault for the object to induce
	manual_outages "line_6321-671,2001-01-06 0:00:01,2001-01-06 00:00:02";
}

object eventgen {				//Event generation object - induces actual faults on the system - this one is a manual object
	name Node_671_SLG_B;
	parent testmetrics;			//Parent it to the reliability metrics object
	fault_type "SLG-B";			//Type of fault for the object to induce
	manual_outages "line_6321-671,2001-01-06 0:00:03,2001-01-06 00:00:04";
}

object eventgen {				//Event generation object - induces actual faults on the system - this one is a manual object
	name Node_671_SLG_C;
	parent testmetrics;			//Parent it to the reliability metrics object
	fault_type "SLG-C";			//Type of fault for the object to induce
	manual_outages "line_6321-671,2001-01-06 0:00:05,2001-01-06 00:00:06";
}

object eventgen {				//Event generation object - induces actual faults on the system - this one is a manual object
	name Node_671_DLG_AB;
	parent testmetrics;			//Parent it to the reliability metrics object
	fault_type "DLG-AB";			//Type of fault for the object to induce
	manual_outages "line_6321-671,2001-01-06 0:00:07,2001-01-06 00:00:08";
}

object eventgen {				//Event generation object - induces actual faults on the system - this one is a manual object
	name Node_671_DLG_BC;
	parent testmetrics;			//Parent it to the reliability metrics object
	fault_type "DLG-BC";			//Type of fault for the object to induce
	manual_outages "line_6321-671,2001-01-06 0:00:09,2001-01-06 00:00:10";
}

object eventgen {				//Event generation object - induces actual faults on the system - this one is a manual object
	name Node_671_DLG_CA;
	parent testmetrics;			//Parent it to the reliability metrics object
	fault_type "DLG-CA";			//Type of fault for the object to induce
	manual_outages "line_6321-671,2001-01-06 0:00:11,2001-01-06 00:00:12";
}

object eventgen {				//Event generation object - induces actual faults on the system - this one is a manual object
	name Node_671_LL_AB;
	parent testmetrics;			//Parent it to the reliability metrics object
	fault_type "LL-AB";			//Type of fault for the object to induce
	manual_outages "line_6321-671,2001-01-06 0:00:13,2001-01-06 00:00:14";
}

object eventgen {				//Event generation object - induces actual faults on the system - this one is a manual object
	name Node_671_LL_BC;
	parent testmetrics;			//Parent it to the reliability metrics object
	fault_type "LL-BC";			//Type of fault for the object to induce
	manual_outages "line_6321-671,2001-01-06 0:00:15,2001-01-06 00:00:16";
}

object eventgen {				//Event generation object - induces actual faults on the system - this one is a manual object
	name Node_671_LL_CA;
	parent testmetrics;			//Parent it to the reliability metrics object
	fault_type "LL-CA";			//Type of fault for the object to induce
	manual_outages "line_6321-671,2001-01-06 0:00:17,2001-01-06 00:00:18";
}

object eventgen {				//Event generation object - induces actual faults on the system - this one is a manual object
	name Node_671_TLG;
	parent testmetrics;			//Parent it to the reliability metrics object
	fault_type "TLG";			//Type of fault for the object to induce
	manual_outages "line_6321-671,2001-01-06 0:00:19,2001-01-06 00:00:20";
}

object eventgen {				//Event generation object - induces actual faults on the system - this one is a manual object
	name Node_671_TLL;
	parent testmetrics;			//Parent it to the reliability metrics object
	fault_type "TLL";			//Type of fault for the object to induce
	manual_outages "line_6321-671,2001-01-06 0:00:21,2001-01-06 00:00:22";
}

//faults for bus 680
object eventgen {				//Event generation object - induces actual faults on the system - this one is a manual object
	name Node_680_SLG_A;
	parent testmetrics;			//Parent it to the reliability metrics object
	fault_type "SLG-A";			//Type of fault for the object to induce
	manual_outages "line_671-680,2001-01-07 0:00:01,2001-01-07 00:00:02";
}

object eventgen {				//Event generation object - induces actual faults on the system - this one is a manual object
	name Node_680_SLG_B;
	parent testmetrics;			//Parent it to the reliability metrics object
	fault_type "SLG-B";			//Type of fault for the object to induce
	manual_outages "line_671-680,2001-01-07 0:00:03,2001-01-07 00:00:04";
}

object eventgen {				//Event generation object - induces actual faults on the system - this one is a manual object
	name Node_680_SLG_C;
	parent testmetrics;			//Parent it to the reliability metrics object
	fault_type "SLG-C";			//Type of fault for the object to induce
	manual_outages "line_671-680,2001-01-07 0:00:05,2001-01-07 00:00:06";
}

object eventgen {				//Event generation object - induces actual faults on the system - this one is a manual object
	name Node_680_DLG_AB;
	parent testmetrics;			//Parent it to the reliability metrics object
	fault_type "DLG-AB";			//Type of fault for the object to induce
	manual_outages "line_671-680,2001-01-07 0:00:07,2001-01-07 00:00:08";
}

object eventgen {				//Event generation object - induces actual faults on the system - this one is a manual object
	name Node_680_DLG_BC;
	parent testmetrics;			//Parent it to the reliability metrics object
	fault_type "DLG-BC";			//Type of fault for the object to induce
	manual_outages "line_671-680,2001-01-07 0:00:09,2001-01-07 00:00:10";
}

object eventgen {				//Event generation object - induces actual faults on the system - this one is a manual object
	name Node_680_DLG_CA;
	parent testmetrics;			//Parent it to the reliability metrics object
	fault_type "DLG-CA";			//Type of fault for the object to induce
	manual_outages "line_671-680,2001-01-07 0:00:11,2001-01-07 00:00:12";
}

object eventgen {				//Event generation object - induces actual faults on the system - this one is a manual object
	name Node_680_LL_AB;
	parent testmetrics;			//Parent it to the reliability metrics object
	fault_type "LL-AB";			//Type of fault for the object to induce
	manual_outages "line_671-680,2001-01-07 0:00:13,2001-01-07 00:00:14";
}

object eventgen {				//Event generation object - induces actual faults on the system - this one is a manual object
	name Node_680_LL_BC;
	parent testmetrics;			//Parent it to the reliability metrics object
	fault_type "LL-BC";			//Type of fault for the object to induce
	manual_outages "line_671-680,2001-01-07 0:00:15,2001-01-07 00:00:16";
}

object eventgen {				//Event generation object - induces actual faults on the system - this one is a manual object
	name Node_680_LL_CA;
	parent testmetrics;			//Parent it to the reliability metrics object
	fault_type "LL-CA";			//Type of fault for the object to induce
	manual_outages "line_671-680,2001-01-07 0:00:17,2001-01-07 00:00:18";
}

object eventgen {				//Event generation object - induces actual faults on the system - this one is a manual object
	name Node_680_TLG;
	parent testmetrics;			//Parent it to the reliability metrics object
	fault_type "TLG";			//Type of fault for the object to induce
	manual_outages "line_671-680,2001-01-07 0:00:19,2001-01-07 00:00:20";
}

object eventgen {				//Event generation object - induces actual faults on the system - this one is a manual object
	name Node_680_TLL;
	parent testmetrics;			//Parent it to the reliability metrics object
	fault_type "TLL";			//Type of fault for the object to induce
	manual_outages "line_671-680,2001-01-07 0:00:21,2001-01-07 00:00:22";
}

//faults for bus 684
object eventgen {				//Event generation object - induces actual faults on the system - this one is a manual object
	name Node_684_SLG_A;
	parent testmetrics;			//Parent it to the reliability metrics object
	fault_type "SLG-A";			//Type of fault for the object to induce
	manual_outages "line_671-684,2001-01-08 0:00:01,2001-01-08 00:00:02";
}

object eventgen {				//Event generation object - induces actual faults on the system - this one is a manual object
	name Node_684_SLG_C;
	parent testmetrics;			//Parent it to the reliability metrics object
	fault_type "SLG-C";			//Type of fault for the object to induce
	manual_outages "line_671-684,2001-01-08 0:00:05,2001-01-08 00:00:06";
}

object eventgen {				//Event generation object - induces actual faults on the system - this one is a manual object
	name Node_684_DLG_CA;
	parent testmetrics;			//Parent it to the reliability metrics object
	fault_type "DLG-CA";			//Type of fault for the object to induce
	manual_outages "line_671-684,2001-01-08 0:00:11,2001-01-08 00:00:12";
}

object eventgen {				//Event generation object - induces actual faults on the system - this one is a manual object
	name Node_684_LL_CA;
	parent testmetrics;			//Parent it to the reliability metrics object
	fault_type "LL-CA";			//Type of fault for the object to induce
	manual_outages "line_671-684,2001-01-08 0:00:17,2001-01-08 00:00:18";
}

//faults for bus 611
object eventgen {				//Event generation object - induces actual faults on the system - this one is a manual object
	name Node_611_SLG_C;
	parent testmetrics;			//Parent it to the reliability metrics object
	fault_type "SLG-C";			//Type of fault for the object to induce
	manual_outages "line_684-611,2001-01-09 0:00:01,2001-01-09 00:00:02";
	max_outage_length 5;
}

//faults for bus 652
object eventgen {				//Event generation object - induces actual faults on the system - this one is a manual object
	name Node_652_SLG_A;
	parent testmetrics;			//Parent it to the reliability metrics object
	fault_type "SLG-A";			//Type of fault for the object to induce
	manual_outages "line_684-652,2001-01-10 0:00:01,2001-01-10 00:00:02";
	max_outage_length 5;
}

//faults for bus 692
object eventgen {				//Event generation object - induces actual faults on the system - this one is a manual object
	name Node_692_SLG_A;
	parent testmetrics;			//Parent it to the reliability metrics object
	fault_type "SLG-A";			//Type of fault for the object to induce
	manual_outages "switch_671-692,2001-01-11 0:00:01,2001-01-11 00:00:02";
}

object eventgen {				//Event generation object - induces actual faults on the system - this one is a manual object
	name Node_692_SLG_B;
	parent testmetrics;			//Parent it to the reliability metrics object
	fault_type "SLG-B";			//Type of fault for the object to induce
	manual_outages "switch_671-692,2001-01-11 0:00:03,2001-01-11 00:00:04";
}

object eventgen {				//Event generation object - induces actual faults on the system - this one is a manual object
	name Node_692_SLG_C;
	parent testmetrics;			//Parent it to the reliability metrics object
	fault_type "SLG-C";			//Type of fault for the object to induce
	manual_outages "switch_671-692,2001-01-11 0:00:05,2001-01-11 00:00:06";
}

object eventgen {				//Event generation object - induces actual faults on the system - this one is a manual object
	name Node_692_DLG_AB;
	parent testmetrics;			//Parent it to the reliability metrics object
	fault_type "DLG-AB";			//Type of fault for the object to induce
	manual_outages "switch_671-692,2001-01-11 0:00:07,2001-01-11 00:00:08";
}

object eventgen {				//Event generation object - induces actual faults on the system - this one is a manual object
	name Node_692_DLG_BC;
	parent testmetrics;			//Parent it to the reliability metrics object
	fault_type "DLG-BC";			//Type of fault for the object to induce
	manual_outages "switch_671-692,2001-01-11 0:00:09,2001-01-11 00:00:10";
}

object eventgen {				//Event generation object - induces actual faults on the system - this one is a manual object
	name Node_692_DLG_CA;
	parent testmetrics;			//Parent it to the reliability metrics object
	fault_type "DLG-CA";			//Type of fault for the object to induce
	manual_outages "switch_671-692,2001-01-11 0:00:11,2001-01-11 00:00:12";
}

object eventgen {				//Event generation object - induces actual faults on the system - this one is a manual object
	name Node_692_LL_AB;
	parent testmetrics;			//Parent it to the reliability metrics object
	fault_type "LL-AB";			//Type of fault for the object to induce
	manual_outages "switch_671-692,2001-01-11 0:00:13,2001-01-11 00:00:14";
}

object eventgen {				//Event generation object - induces actual faults on the system - this one is a manual object
	name Node_692_LL_BC;
	parent testmetrics;			//Parent it to the reliability metrics object
	fault_type "LL-BC";			//Type of fault for the object to induce
	manual_outages "switch_671-692,2001-01-11 0:00:15,2001-01-11 00:00:16";
}

object eventgen {				//Event generation object - induces actual faults on the system - this one is a manual object
	name Node_692_LL_CA;
	parent testmetrics;			//Parent it to the reliability metrics object
	fault_type "LL-CA";			//Type of fault for the object to induce
	manual_outages "switch_671-692,2001-01-11 0:00:17,2001-01-11 00:00:18";
}

object eventgen {				//Event generation object - induces actual faults on the system - this one is a manual object
	name Node_692_TLG;
	parent testmetrics;			//Parent it to the reliability metrics object
	fault_type "TLG";			//Type of fault for the object to induce
	manual_outages "switch_671-692,2001-01-11 0:00:19,2001-01-11 00:00:20";
}

object eventgen {				//Event generation object - induces actual faults on the system - this one is a manual object
	name Node_692_TLL;
	parent testmetrics;			//Parent it to the reliability metrics object
	fault_type "TLL";			//Type of fault for the object to induce
	manual_outages "switch_671-692,2001-01-11 0:00:21,2001-01-11 00:00:22";
}

//faults for bus 675
object eventgen {				//Event generation object - induces actual faults on the system - this one is a manual object
	name Node_675_SLG_A;
	parent testmetrics;			//Parent it to the reliability metrics object
	fault_type "SLG-A";			//Type of fault for the object to induce
	manual_outages "line_692-675,2001-01-12 0:00:01,2001-01-12 00:00:02";
}

object eventgen {				//Event generation object - induces actual faults on the system - this one is a manual object
	name Node_675_SLG_B;
	parent testmetrics;			//Parent it to the reliability metrics object
	fault_type "SLG-B";			//Type of fault for the object to induce
	manual_outages "line_692-675,2001-01-12 0:00:03,2001-01-12 00:00:04";
}

object eventgen {				//Event generation object - induces actual faults on the system - this one is a manual object
	name Node_675_SLG_C;
	parent testmetrics;			//Parent it to the reliability metrics object
	fault_type "SLG-C";			//Type of fault for the object to induce
	manual_outages "line_692-675,2001-01-12 0:00:05,2001-01-12 00:00:06";
}

object eventgen {				//Event generation object - induces actual faults on the system - this one is a manual object
	name Node_675_DLG_AB;
	parent testmetrics;			//Parent it to the reliability metrics object
	fault_type "DLG-AB";			//Type of fault for the object to induce
	manual_outages "line_692-675,2001-01-12 0:00:07,2001-01-12 00:00:08";
}

object eventgen {				//Event generation object - induces actual faults on the system - this one is a manual object
	name Node_675_DLG_BC;
	parent testmetrics;			//Parent it to the reliability metrics object
	fault_type "DLG-BC";			//Type of fault for the object to induce
	manual_outages "line_692-675,2001-01-12 0:00:09,2001-01-12 00:00:10";
}

object eventgen {				//Event generation object - induces actual faults on the system - this one is a manual object
	name Node_675_DLG_CA;
	parent testmetrics;			//Parent it to the reliability metrics object
	fault_type "DLG-CA";			//Type of fault for the object to induce
	manual_outages "line_692-675,2001-01-12 0:00:11,2001-01-12 00:00:12";
}

object eventgen {				//Event generation object - induces actual faults on the system - this one is a manual object
	name Node_675_LL_AB;
	parent testmetrics;			//Parent it to the reliability metrics object
	fault_type "LL-AB";			//Type of fault for the object to induce
	manual_outages "line_692-675,2001-01-12 0:00:13,2001-01-12 00:00:14";
}

object eventgen {				//Event generation object - induces actual faults on the system - this one is a manual object
	name Node_675_LL_BC;
	parent testmetrics;			//Parent it to the reliability metrics object
	fault_type "LL-BC";			//Type of fault for the object to induce
	manual_outages "line_692-675,2001-01-12 0:00:15,2001-01-12 00:00:16";
}

object eventgen {				//Event generation object - induces actual faults on the system - this one is a manual object
	name Node_675_LL_CA;
	parent testmetrics;			//Parent it to the reliability metrics object
	fault_type "LL-CA";			//Type of fault for the object to induce
	manual_outages "line_692-675,2001-01-12 0:00:17,2001-01-12 00:00:18";
}

object eventgen {				//Event generation object - induces actual faults on the system - this one is a manual object
	name Node_675_TLG;
	parent testmetrics;			//Parent it to the reliability metrics object
	fault_type "TLG";			//Type of fault for the object to induce
	manual_outages "line_692-675,2001-01-12 0:00:19,2001-01-12 00:00:20";
}

object eventgen {				//Event generation object - induces actual faults on the system - this one is a manual object
	name Node_675_TLL;
	parent testmetrics;			//Parent it to the reliability metrics object
	fault_type "TLL";			//Type of fault for the object to induce
	manual_outages "line_692-675,2001-01-12 0:00:21,2001-01-12 00:00:22";
}

object power_metrics {		//Powerflow metrics object - performs 1366 metric calculations
	name pwrmetrics;
	base_time_value 1 h;	//Base time value for 1366-metrics.  Defaults to 1 minute
}

// Phase Conductor for 601: 556,500 26/7 ACSR
object overhead_line_conductor:6010 {
	geometric_mean_radius 0.031300;
	resistance 0.185900;
}

// Phase Conductor for 602: 4/0 6/1 ACSR
object overhead_line_conductor:6020 {
	geometric_mean_radius 0.00814;
	resistance 0.592000;
}

// Phase Conductor for 603, 604, 605: 1/0 ACSR
object overhead_line_conductor:6030 {
	geometric_mean_radius 0.004460;
	resistance 1.120000;
}


// Phase Conductor for 606: 250,000 AA,CN
object underground_line_conductor:6060 { 
	outer_diameter 1.290000;
	conductor_gmr 0.017100;
	conductor_diameter 0.567000;
	conductor_resistance 0.410000;
	neutral_gmr 0.0020800; 
	neutral_resistance 14.87200;  
	neutral_diameter 0.0640837;
	neutral_strands 13.000000;
	shield_gmr 0.000000;
	shield_resistance 0.000000;
}

// Phase Conductor for 607: 1/0 AA,TS N: 1/0 Cu
object underground_line_conductor:6070 { 
	outer_diameter 1.060000;
	conductor_gmr 0.011100;
	conductor_diameter 0.368000;
	conductor_resistance 0.970000;
	neutral_gmr 0;
	neutral_resistance 0.0;
	neutral_diameter 0;
	neutral_strands 0;
	shield_gmr 0.0365;
	shield_resistance 4.2786;
}

// Overhead line configurations
object line_spacing:500601 {
	distance_AB 2.5;
	distance_AC 4.5;
	distance_BC 7.0;
	distance_BN 5.656854;
	distance_AN 4.272002;
	distance_CN 5.0;
}

// Overhead line configurations
object line_spacing:500602 {
	distance_AC 2.5;
	distance_AB 4.5;
	distance_BC 7.0;
	distance_CN 5.656854;
	distance_AN 4.272002;
	distance_BN 5.0;
}

object line_spacing:505603 {
	distance_AC 0.0;
	distance_AB 0.0;
	distance_BC 7.0;
	distance_AN 0.0;
	distance_CN 5.656854;
	distance_BN 5.0;
}

object line_spacing:505604 {
	distance_AC 7.0;
	distance_AB 0.0;
	distance_BC 0.0;
	distance_AN 5.656854;
	distance_CN 5.0;
	distance_BN 0.0;
}

object line_spacing:510 {
	distance_AC 0.0;
	distance_AB 0.0;
	distance_BC 0.0;
	distance_AN 0.0;
	distance_CN 5.0;
	distance_BN 0.0;}

object line_configuration:601 {
	conductor_A overhead_line_conductor:6010;
	conductor_B overhead_line_conductor:6010;
	conductor_C overhead_line_conductor:6010;
	conductor_N overhead_line_conductor:6020;
	spacing line_spacing:500601;
}

object line_configuration:602 {
	conductor_A overhead_line_conductor:6020;
	conductor_B overhead_line_conductor:6020;
	conductor_C overhead_line_conductor:6020;
	conductor_N overhead_line_conductor:6020;
	spacing line_spacing:500602;
}

object line_configuration:603 {
	conductor_B overhead_line_conductor:6030;
	conductor_C overhead_line_conductor:6030;
	conductor_N overhead_line_conductor:6030;
	spacing line_spacing:505603;
}

object line_configuration:604 {
	conductor_A overhead_line_conductor:6030;
	conductor_C overhead_line_conductor:6030;
	conductor_N overhead_line_conductor:6030;
	spacing line_spacing:505604;
}

object line_configuration:605 {
	conductor_C overhead_line_conductor:6030;
	conductor_N overhead_line_conductor:6030;
	spacing line_spacing:510;
}

//Underground line configuration
object line_spacing:515 {
	distance_AB 0.500000;
	distance_BC 0.500000;
	distance_AC 1.000000;
	distance_AN 0.000000;
	distance_BN 0.000000;
	distance_CN 0.000000;
}

object line_spacing:520 {
	distance_AB 0.000000;
	distance_BC 0.000000;
	distance_AC 0.000000;
	distance_AN 0.083333;
	distance_BN 0.000000;
	distance_CN 0.000000;
}

object line_configuration:606 {
	conductor_A underground_line_conductor:6060;
	conductor_B underground_line_conductor:6060;
	conductor_C underground_line_conductor:6060;
	spacing line_spacing:515;
}

object line_configuration:607 {
	conductor_A underground_line_conductor:6070;
	conductor_N underground_line_conductor:6070;
	spacing line_spacing:520;
}
// source impedance configuration
// positive sequence source impedance =0.03651+j0.29212 Ohm
// zero sequence source impedance = 0.03461+j0.27706 Ohm
object line_configuration{
	name source_conf;
	z11 0.0359+0.2871j;
	z12 -0.0006-0.0050j;
	z13 -0.0006-0.0050j;
	z21 -0.0006-0.0050j;
	z22 0.0359+0.2871j;
	z23 -0.0006-0.0050j;
	z31 -0.0006-0.0050j;
	z32 -0.0006-0.0050j;
	z33 0.0359+0.2871j;
}

// Define line objects
object overhead_line{
	phases "ABCN";
	name line_source-650;
	from source;
	to n650;
	length 5280;
	configuration source_conf;
	object recorder {
		in '2001-01-13 00:00:00';
		property fault_current_out_A.real,fault_current_out_A.imag,fault_current_out_B.real,fault_current_out_B.imag,fault_current_out_C.real,fault_current_out_C.imag;
		file fault_650.csv;
		interval 1;
		limit 23;
	};
}

object overhead_line:632645 {
	phases "BCN";
	name line_632-645;
	from node:632;
	to load:645;
	length 500;
	configuration line_configuration:603;
	object recorder {
		in '2001-01-04 00:00:00';
		property fault_current_out_A.real,fault_current_out_A.imag,fault_current_out_B.real,fault_current_out_B.imag,fault_current_out_C.real,fault_current_out_C.imag;
		file fault_645.csv;
		interval 1;
		limit 23;
	};
}

object overhead_line:645646 {
	phases "BCN";
	name line_645-646;
	from load:645;
	to load:646;
	length 300;
	configuration line_configuration:603;
	object recorder {
		in '2001-01-05 00:00:00';
		property fault_current_out_A.real,fault_current_out_A.imag,fault_current_out_B.real,fault_current_out_B.imag,fault_current_out_C.real,fault_current_out_C.imag;
		file fault_646.csv;
		interval 1;
		limit 23;
	};
}

object overhead_line:630632 {
	phases "ABCN";
	name line_630-632;
	from node:630;
	to node:632;
	length 2000;
	configuration line_configuration:601;
	object recorder {
		in '2001-01-01 00:00:00';
		property fault_current_out_A.real,fault_current_out_A.imag,fault_current_out_B.real,fault_current_out_B.imag,fault_current_out_C.real,fault_current_out_C.imag;
		file fault_632.csv;
		interval 1;
		limit 23;
	};
}

//Split line for distributed load
object overhead_line:6326321 {
	phases "ABCN";
	name line_632-6321;
	from node:632;
	to load:6321;
	length 500;
	configuration line_configuration:601;
}

object overhead_line:6321671 {
	phases "ABCN";
	name line_6321-671;
	from load:6321;
	to load:671;
	length 1500;
	configuration line_configuration:601;
	object recorder {
		in '2001-01-06 00:00:00';
		property fault_current_out_A.real,fault_current_out_A.imag,fault_current_out_B.real,fault_current_out_B.imag,fault_current_out_C.real,fault_current_out_C.imag;
		file fault_671.csv;
		interval 1;
		limit 23;
	};
}
//End split line

object overhead_line:671680 {
	phases "ABCN";
	name line_671-680;
	from load:671;
	to node:680;
	length 1000;
	configuration line_configuration:601;
	object recorder {
		in '2001-01-07 00:00:00';
		property fault_current_out_A.real,fault_current_out_A.imag,fault_current_out_B.real,fault_current_out_B.imag,fault_current_out_C.real,fault_current_out_C.imag;
		file fault_680.csv;
		interval 1;
		limit 23;
	};
}

object overhead_line:671684 {
	phases "ACN";
	name line_671-684;
	from load:671;
	to node:684;
	length 300;
	configuration line_configuration:604;
	object recorder {
		in '2001-01-08 00:00:00';
		property fault_current_out_A.real,fault_current_out_A.imag,fault_current_out_B.real,fault_current_out_B.imag,fault_current_out_C.real,fault_current_out_C.imag;
		file fault_684.csv;
		interval 1;
		limit 23;
	};
}

 object overhead_line:684611 {
	phases "CN";
	name line_684-611;
	from node:684;
	to meter:611;
	length 300;
	configuration line_configuration:605;
	object recorder {
		in '2001-01-09 00:00:00';
		property fault_current_out_A.real,fault_current_out_A.imag,fault_current_out_B.real,fault_current_out_B.imag,fault_current_out_C.real,fault_current_out_C.imag;
		file fault_611.csv;
		interval 1;
		limit 23;
	};
}

object underground_line:684652 {
	phases "AN";
	name line_684-652;
	from node:684;
	to load:652;
	length 800;
	configuration line_configuration:607;
	object recorder {
		in '2001-01-10 00:00:00';
		property fault_current_out_A.real,fault_current_out_A.imag,fault_current_out_B.real,fault_current_out_B.imag,fault_current_out_C.real,fault_current_out_C.imag;
		file fault_652.csv;
		interval 1;
		limit 23;
	};
}

object underground_line:692675 {
	phases "ABC";
	name line_692-675;
	from load:692;
	to load:675;
	length 500;
	configuration line_configuration:606;
	object recorder {
		in '2001-01-12 00:00:00';
		property fault_current_out_A.real,fault_current_out_A.imag,fault_current_out_B.real,fault_current_out_B.imag,fault_current_out_C.real,fault_current_out_C.imag;
		file fault_675.csv;
		interval 1;
		limit 23;
	};
}

object overhead_line:632633 {
	phases "ABCN";
	name line_632-633;
	from node:632;
	to node:633;
	length 500;
	configuration line_configuration:602;
	object recorder {
		in '2001-01-02 00:00:00';
		property fault_current_out_A.real,fault_current_out_A.imag,fault_current_out_B.real,fault_current_out_B.imag,fault_current_out_C.real,fault_current_out_C.imag;
		file fault_633.csv;
		interval 1;
		limit 23;
	};
}





// Create node objects
object node{
	name source;
	bustype SWING;
	phases "ABCN";
	voltage_A 2401.7771;
	voltage_B -1200.8886-2080.000j;
	voltage_C -1200.8886+2080.000j;
	nominal_voltage 2401.7771;
}
object node:633 {
	name n633;
	phases "ABCN";
	voltage_A 2401.7771;
	voltage_B -1200.8886-2080.000j;
	voltage_C -1200.8886+2080.000j;
	nominal_voltage 2401.7771;
}

object node:630 {
	name n630;
	phases "ABCN";
	voltage_A 2401.7771+0j;
	voltage_B -1200.8886-2080.000j;
	voltage_C -1200.8886+2080.000j;
	nominal_voltage 2401.7771;
}
 
object node:632 {
	name n632;
	phases "ABCN";
	voltage_A 2401.7771;
	voltage_B -1200.8886-2080.000j;
	voltage_C -1200.8886+2080.000j;
	nominal_voltage 2401.7771;
}

object node:650 {
	name n650;
	// bustype SWING;
	phases "ABCN";
	voltage_A 2401.7771;
	voltage_B -1200.8886-2080.000j;
	voltage_C -1200.8886+2080.000j;
	nominal_voltage 2401.7771;
} 
 
object node:680 {
	name n680;
	phases "ABCN";
	voltage_A 2401.7771;
	voltage_B -1200.8886-2080.000j;
	voltage_C -1200.8886+2080.000j;
	nominal_voltage 2401.7771;
}
 
 
object node:684 {
	name n684;
	phases "ACN";
	voltage_A 2401.7771;
	voltage_B -1200.8886-2080.000j;
	voltage_C -1200.8886+2080.000j;
	nominal_voltage 2401.7771;
} 
 
 
 
// Create load objects 

object load:634 {
	name l634;
	phases "ABCN";
	voltage_A 480.000+0j;
	voltage_B -240.000-415.6922j;
	voltage_C -240.000+415.6922j;
	nominal_voltage 480.000;
}

object load {
	name l634a;
	phases "ABCN";
	voltage_A 480.000+0j;
	voltage_B -240.000-415.6922j;
	voltage_C -240.000+415.6922j;
	nominal_voltage 480.000;
}
 
object load:645 {
	name l645;
	phases "BCN";
	voltage_A 2401.7771;
	voltage_B -1200.8886-2080.000j;
	voltage_C -1200.8886+2080.000j;
	nominal_voltage 2401.7771;
}
 
object load:646 {
	name l646;
	phases "BCN";
	voltage_A 2401.7771;
	voltage_B -1200.8886-2080.000j;
	voltage_C -1200.8886+2080.000j;
	nominal_voltage 2401.7771;
}
 
 
object load:652 {
	name l652;
	phases "AN";
	voltage_A 2401.7771;
	voltage_B -1200.8886-2080.000j;
	voltage_C -1200.8886+2080.000j;
	nominal_voltage 2401.7771;
}
 
object load:671 {
	name l671;
	phases "ABCD";
	voltage_A 2401.7771;
	voltage_B -1200.8886-2080.000j;
	voltage_C -1200.8886+2080.000j;
	nominal_voltage 2401.7771;
}
 
object load:675 {
	name l675;
	phases "ABC";
	voltage_A 2401.7771;
	voltage_B -1200.8886-2080.000j;
	voltage_C -1200.8886+2080.000j;
	nominal_voltage 2401.7771;
}
 
object load:692 {
	name l692;
	phases "ABCD";
	voltage_A 2401.7771;
	voltage_B -1200.8886-2080.000j;
	voltage_C -1200.8886+2080.000j;
	nominal_voltage 2401.7771;
}
 
object meter:611 {
	name l611;
	phases "CN";
	voltage_A 2401.7771;
	voltage_B -1200.8886-2080.000j;
	voltage_C -1200.8886+2080.000j;
	groupid METERTEST;
	nominal_voltage 2401.7771;
}
 
// distributed load between node 632 and 671
// 2/3 of load 1/4 of length down line: Kersting p.56
object load:6711 {
	name l6711;
	parent l671;
	phases "ABC";
	voltage_A 2401.7771;
	voltage_B -1200.8886-2080.000j;
	voltage_C -1200.8886+2080.000j;
	nominal_voltage 2401.7771;
}

object load:6321 {
	name l6321;
	phases "ABCN";
	voltage_A 2401.7771;
	voltage_B -1200.8886-2080.000j;
	voltage_C -1200.8886+2080.000j;
	nominal_voltage 2401.7771;
}
 

 
// Switch
object switch:671692 {
	phases "ABCN";
	name switch_671-692;
	from load:671;
	to load:692;
	status CLOSED;
	object recorder {
		in '2001-01-11 00:00:00';
		property fault_current_out_A.real,fault_current_out_A.imag,fault_current_out_B.real,fault_current_out_B.imag,fault_current_out_C.real,fault_current_out_C.imag;
		file fault_692.csv;
		interval 1;
		limit 23;
	};
}

object switch:671692 {
	phases "ABCN";
	name switch_634-634;
	from load:634;
	to l634a;
	status CLOSED;
	object recorder {
		in '2001-01-03 00:00:00';
		property fault_current_out_A.real,fault_current_out_A.imag,fault_current_out_B.real,fault_current_out_B.imag,fault_current_out_C.real,fault_current_out_C.imag;
		file fault_634.csv;
		interval 1;
		limit 23;
	};
} 
// Transformer
object transformer_configuration:400 {
	connect_type WYE_WYE;
  	install_type PADMOUNT;
  	power_rating 500;
  	primary_voltage 4160;
  	secondary_voltage 480;
  	resistance 0.011;
  	reactance 0.02;
}
  
object transformer:633634 {
  	phases "ABCN";
  	name transformer_633-634;
  	from node:633;
  	to load:634;
  	configuration transformer_configuration:400;
}
  
 
// Regulator
object regulator_configuration:6506321 {
	connect_type 1;
	band_center 122.000;
	band_width 2.0;
	time_delay 30.0;
	raise_taps 16;
	lower_taps 16;
	current_transducer_ratio 700;
	power_transducer_ratio 20;
	compensator_r_setting_A 3.0;
	compensator_r_setting_B 3.0;
	compensator_r_setting_C 3.0;
	compensator_x_setting_A 9.0;
	compensator_x_setting_B 9.0;
	compensator_x_setting_C 9.0;
	CT_phase "ABC";
	PT_phase "ABC";
	regulation 0.10;
	Control MANUAL;
	Type A;
	tap_pos_A 0;
	tap_pos_B 0;
	tap_pos_C 0;
}
  
object regulator:650630 {
	name reg650-RG60;
	phases "ABC";
	from node:650;
	to node:630;
	configuration regulator_configuration:6506321;
}